10
Li1 H3 C3 O3
Li -1.057603 -1.577484 -1.036177
O -1.794972 -0.263036 0.052803
O 0.250966 -0.324419 1.095874
C 1.444846 0.058210 0.494422
C 1.028433 0.517754 -0.862607
O -0.156529 1.201576 -0.619768
C -0.712437 0.507913 0.480230
H 1.871967 0.905397 1.077998
H 1.805819 1.159010 -1.329221
H 0.806810 -0.350755 -1.523624