11
Li1 H3 C3 O4
O -0.114771 1.348322 0.172114
C 0.264056 0.407241 -0.503934
C 1.394835 -0.476908 -0.066575
O 1.874772 -0.028931 1.180582
C 2.976517 0.922012 1.136285
O 3.882938 0.702703 0.356485
O 2.756958 1.839482 1.962250
Li 0.885528 1.550471 1.890827
H -0.221230 0.172097 -1.463272
H 2.177777 -0.475984 -0.833105
H 1.018539 -1.502376 0.023169