11
Li1 H4 C3 O3
C -0.049418 0.106945 0.063877
C 1.471515 0.149899 -0.115520
O 1.993152 -1.205712 -0.177565
C 3.312845 -1.394672 -0.295482
O 4.050143 -0.374156 -0.350404
O -0.591481 1.346770 0.134768
Li 5.211672 -1.786327 -0.461460
H -0.232474 -0.526407 0.972793
H -0.442946 -0.517956 -0.781792
H 1.935363 0.677004 0.723768
H 1.729646 0.678143 -1.038957