11
Li1 H4 C3 O3
C -0.101080 -0.054875 0.104406
C 1.406303 0.095077 -0.043723
O 1.998639 -1.233585 -0.077634
C 3.311801 -1.360870 -0.284940
O 3.991265 -0.312113 -0.457410
O -0.563719 1.325405 0.410143
Li 5.207225 -1.672109 -0.587924
H -0.242354 -0.599695 1.058455
H 1.874277 0.644827 0.792041
H 1.681279 0.625328 -0.962908
H -1.178184 1.553121 -0.284707