11
Li1 H4 C3 O3
C -0.003980 0.080584 0.053017
C 1.505535 0.160176 -0.100030
O 1.983567 -1.196074 -0.147649
C 3.313489 -1.397848 -0.290278
O 4.035570 -0.376242 -0.370413
O -0.625472 1.288529 0.108814
Li 5.217235 -1.792040 -0.495342
H -0.291631 -0.490241 0.957383
H -0.465310 -0.501378 -0.768423
H 1.949331 0.689907 0.746914
H 1.769684 0.688159 -1.019967