11
Li1 H4 C3 O3
O 0.783952 1.724962 -0.602159
C 0.348299 0.607721 0.054918
C 1.429557 -0.434267 0.282576
O 1.886335 -1.010593 -1.021486
C 2.778311 -0.394180 -1.700380
O 3.414877 0.612432 -1.522219
Li 2.304681 2.210699 -1.213853
H -0.487950 0.102006 -0.468287
H -0.032207 0.822148 1.076359
H 1.067417 -1.306167 0.827441
H 2.312510 -0.014560 0.770450