11
Li1 H4 C3 O3
O 1.045730 1.254553 -0.541937
C 0.324476 0.262318 0.244145
C 1.385665 -0.805486 0.476883
O 2.359829 -0.514231 -0.565956
C 2.138210 0.698498 -1.023412
O 2.878872 1.251366 -1.819234
Li 3.295277 2.649479 -2.855518
H -0.514805 -0.086994 -0.356779
H -0.023790 0.739607 1.156778
H 1.025071 -1.820636 0.331234
H 1.891248 -0.708273 1.437154