10
Li1 H3 C3 O3
O 0.312876 -1.191875 -0.378760
C -0.659032 -0.374936 -0.097197
C 1.580093 -0.428362 -0.018034
O -1.862677 -0.640485 -0.109513
O -0.268211 0.853750 0.233061
C 1.216896 1.005046 -0.160006
Li -2.217697 1.207228 0.315279
H 2.364949 -0.759593 -0.697172
H 1.785228 -0.764131 1.002143
H 1.126316 1.221744 -1.235235