11
Li1 H4 C3 O3
C 0.027050 0.072794 0.018800
C 1.461622 0.325847 -0.406894
O 1.983302 -1.070858 -0.538862
C 3.254990 -1.358832 -0.378634
O 4.062216 -0.435434 -0.038029
O -0.655047 1.334438 0.144851
Li 5.103120 -1.907898 -0.189755
H -0.058007 -0.458049 0.988670
H -0.485459 -0.552508 -0.728154
H 1.992009 0.753887 0.457659
H -1.503146 1.161410 0.562789