11
Li1 H4 C3 O3
C -0.098722 0.001374 -0.146607
C 1.396828 -0.210722 -0.041584
O 1.916392 0.736134 0.967653
C 3.295062 0.760941 1.286634
O 4.018259 -0.045506 0.683242
O 3.566263 1.614634 2.148131
Li 0.264034 1.439208 1.306004
H -0.388376 0.308450 -1.158838
H -0.650875 -0.914247 0.096854
H 1.944776 -0.000590 -0.965542
H 1.683242 -1.209755 0.301181