11
Li1 H4 C3 O3
C 0.043032 0.128487 0.156474
C 1.512493 0.176215 -0.053480
O 1.980411 -1.185654 -0.102972
C 3.303698 -1.392637 -0.277769
O 4.029058 -0.376434 -0.398222
O -0.576139 1.330650 -0.041775
Li 5.198264 -1.800462 -0.531601
H -0.392170 -0.543158 0.893392
H 2.028137 0.706890 0.759842
H 1.751926 0.698802 -0.985686
H -1.493259 1.267812 0.247597