10
Li1 H3 C3 O3
C 0.094429 0.419217 -0.240418
C 1.398823 0.031696 0.203349
O 2.222076 -0.732580 -0.662826
C 2.899747 -0.094209 -1.688818
O 3.591673 -0.833030 -2.394335
O 2.745354 1.160282 -1.803583
Li 1.497858 1.933536 -0.736482
H -0.279430 -0.004174 -1.175137
H -0.659472 0.578785 0.530482
H 1.616196 -0.191264 1.247277