12
Li1 H5 C3 O3
H 0.972595 -0.222554 -0.097108
C 2.064409 -0.168556 -0.068549
H 2.377055 0.734055 -0.600355
H 2.376228 -0.085433 0.976022
C 2.644888 -1.406636 -0.711935
H 2.335777 -2.311898 -0.183388
H 2.334012 -1.495438 -1.755923
O 4.080113 -1.294757 -0.655768
C 4.791265 -2.307151 -1.180106
O 4.207469 -3.302373 -1.692412
O 6.046196 -2.197985 -1.126765
Li 5.994535 -3.879219 -1.993314