20
Li2 H6 C6 O6
O -3.646978 2.523325 -0.168919
C -2.402387 2.654954 -0.023730
O -1.825824 3.776523 0.017986
O -1.690428 1.518273 0.086915
C -0.265418 1.662265 0.260475
C 0.307160 0.294815 0.453473
C 1.249459 -0.205217 -0.336708
C 1.908002 -1.539764 -0.198253
O 1.363180 -2.236305 0.924782
C 1.858781 -3.464692 1.173531
O 2.761160 -3.948689 0.437895
O 1.370005 -4.072035 2.161778
Li 2.591498 -5.424473 1.634225
Li -3.606286 4.416978 -0.203851
H -0.081130 2.291441 1.136025
H 0.164119 2.151410 -0.617219
H -0.068596 -0.278945 1.296734
H 1.613801 0.380946 -1.179590
H 2.988143 -1.414384 -0.069891
H 1.755220 -2.127274 -1.109457