22
Li2 H8 C6 O6
O -3.724337 2.729367 0.020265
C -2.463636 2.728788 0.024692
O -1.773875 3.785610 0.049903
O -1.866232 1.525128 0.001810
C -0.427516 1.510291 0.005627
C 0.019079 0.062896 -0.013450
C 1.542486 -0.041395 -0.007720
C 2.046276 -1.469017 -0.064813
O 1.636561 -2.134975 1.144116
C 1.969677 -3.430858 1.270066
O 2.611380 -4.018628 0.355722
O 1.607062 -4.002284 2.333631
Li 2.455088 -5.499065 1.541186
Li -3.489721 4.607865 0.069649
H -0.064068 2.022960 0.900980
H -0.059573 2.049593 -0.872229
H -0.380891 -0.427999 -0.908349
H -0.396151 -0.453494 0.857447
H 1.952815 0.449413 0.882509
H 1.953587 0.482185 -0.878793
H 3.136580 -1.495991 -0.135574
H 1.630814 -1.999821 -0.926314