10
Li1 H3 C3 O3
O 1.395560 1.289395 0.305681
C 0.360990 0.308916 0.069066
C 0.950413 -1.074283 -0.016742
O 2.140022 -1.272254 -0.037410
C 2.392984 1.271421 -0.521258
O 3.402056 1.919465 -0.430422
Li 4.960929 2.210895 -1.367389
H -0.181777 0.540798 -0.852038
H -0.323095 0.379563 0.915461
H 0.212254 -1.890767 -0.071508