10
Li1 H3 C3 O3
O 0.221872 -1.073862 0.100590
C -0.614038 -0.070539 -0.012317
C 1.584709 -0.588596 -0.072588
O -1.821522 -0.180912 0.050369
O 0.002218 1.097064 -0.204145
C 1.374509 0.882151 -0.141575
Li -3.524858 0.383935 -0.030580
H 1.986865 -1.024322 -0.992496
H 2.177629 -0.922575 0.780972
H 1.991356 1.626043 -0.623666